Circuit: * C:\users\ninja\Mis Documentos\ProcesoPTH-GIT\documentacion\Simulaciones\Draft1.asc

.OP point found by inspection.

Date: Mon Nov 11 17:57:33 2019
Total elapsed time: 0.048 seconds.

tnom = 27
temp = 27
method = modified trap
totiter = 2844
traniter = 2844
tranpoints = 1127
accept = 1103
rejected = 24
matrix size = 6
fillins = 0
solver = Normal
Matrix Compiler1: 146 bytes object code size  0.6/0.6/[0.6]
Matrix Compiler2: 354 bytes object code size  0.6/0.6/[0.6]

