Circuit: * C:\users\ninja\Mis Documentos\ProcesoPTH-GIT\documentacion\Simulaciones\DriverMos.asc

D1: both pins shorted together -- ignoring.
D3: both pins shorted together -- ignoring.
D7: both pins shorted together -- ignoring.
D10: both pins shorted together -- ignoring.
WARNING: Less than two connections to node NC_01.  This node is used by D2.
WARNING: Less than two connections to node NC_02.  This node is used by D11.
Direct Newton iteration for .op point succeeded.
Heightened Def Con from 9.67704e-006 to 9.67804e-006
Heightened Def Con from 9.99493e-006 to 9.99593e-006
Heightened Def Con from 9.9992e-006 to 1.00001e-005
Heightened Def Con from 0.000109998 to 0.000110006
Heightened Def Con from 0.00021 to 0.000210006
Heightened Def Con from 0.000309959 to 0.000309961
Heightened Def Con from 0.000309984 to 0.000309986
Heightened Def Con from 0.000309999 to 0.000310005
Heightened Def Con from 0.000409973 to 0.000409974
Heightened Def Con from 0.00041 to 0.000410006

Date: Tue Oct 08 18:15:12 2019
Total elapsed time: 0.391 seconds.

tnom = 27
temp = 27
method = modified trap
totiter = 18381
traniter = 18359
tranpoints = 5180
accept = 4104
rejected = 1086
matrix size = 92
fillins = 28
solver = Normal
Matrix Compiler1: 7.09 KB object code size  3.5/1.5/[1.1]
Matrix Compiler2: 7.81 KB object code size  1.3/1.8/[1.3]

