Circuit: * C:\users\ninja\Mis Documentos\ProcesoPTH-GIT\documentacion\Simulaciones\DriverMos.asc

D1: both pins shorted together -- ignoring.
D3: both pins shorted together -- ignoring.
D7: both pins shorted together -- ignoring.
WARNING: Less than two connections to node NC_01.  This node is used by D2.
Direct Newton iteration for .op point succeeded.
Heightened Def Con from 9.67703e-006 to 9.67803e-006
Heightened Def Con from 9.95391e-006 to 9.95491e-006
Heightened Def Con from 9.99902e-006 to 1.00001e-005
Heightened Def Con from 0.00011 to 0.000110006
Heightened Def Con from 0.000209998 to 0.000210006
Heightened Def Con from 0.000309995 to 0.000309997
Heightened Def Con from 0.00031 to 0.000310006
Heightened Def Con from 0.000409999 to 0.000410005

Date: Tue Nov 26 15:58:58 2019
Total elapsed time: 0.511 seconds.

tnom = 27
temp = 27
method = modified trap
totiter = 20551
traniter = 20529
tranpoints = 5519
accept = 4274
rejected = 1253
matrix size = 120
fillins = 48
solver = Normal
Matrix Compiler1: 9.91 KB object code size  6.1/2.7/[2.7]
Matrix Compiler2: 10.41 KB object code size  2.3/3.0/[2.1]

